Version 4
SHEET 1 880 680
WIRE 192 96 48 96
WIRE 272 96 192 96
WIRE 336 96 272 96
WIRE 48 128 48 96
WIRE 192 128 192 96
WIRE 336 128 336 96
WIRE 272 144 272 96
WIRE 48 240 48 208
WIRE 192 240 192 208
WIRE 192 240 48 240
WIRE 224 240 192 240
WIRE 272 240 272 208
WIRE 272 240 224 240
WIRE 336 240 336 208
WIRE 336 240 272 240
WIRE 224 272 224 240
FLAG 224 272 0
SYMBOL res 176 112 R0
SYMATTR InstName R1
SYMATTR Value 1
SYMBOL cap 256 144 R0
SYMATTR InstName C1
SYMATTR Value {C}
SYMBOL ind 320 112 R0
SYMATTR InstName L1
SYMATTR Value {L}
SYMBOL voltage 48 112 R0
WINDOW 123 0 0 Left 0
WINDOW 39 0 0 Left 0
SYMATTR InstName V1
SYMATTR Value SINE(0 5 {f} 0)
TEXT -240 72 Left 2 !.step param f 400 1.5k 100
TEXT -120 296 Left 2 !.param C={Q/w}
TEXT -120 328 Left 2 !.param L={1/(Q*w)}
TEXT -120 360 Left 2 !.param w={2*pi*f}
TEXT -240 96 Left 2 !.param Q=10
TEXT -242 380 Left 2 !.tran 100
